Circuit: * D:\LT_projects\Draft3.asc


Date: Thu Oct 12 13:53:13 2023
Total elapsed time: 0.135 seconds.

tnom = 27
temp = 27
method = trap
totiter = 2026
traniter = 0
tranpoints = 0
accept = 0
rejected = 0
matrix size = 5
fillins = 0
solver = Normal
Avg thread counts: 1.8/0.0/2.7/1.8
Matrix Compiler1:       8 opcodes  1.6/[0.2]/0.2
Matrix Compiler2: 335 bytes object code size  0.1/0.3/[0.1]

