Circuit: * D:\LT_projects\Lab2 power.asc

Direct Newton iteration for .op point succeeded.

Date: Tue Oct 10 12:41:43 2023
Total elapsed time: 0.218 seconds.

tnom = 27
temp = 27
method = modified trap
totiter = 2961
traniter = 2950
tranpoints = 1440
accept = 1388
rejected = 52
matrix size = 13
fillins = 0
solver = Normal
Avg thread counts: 1.6/2.2/2.2/1.6
Matrix Compiler1: 978 bytes object code size  0.7/0.5/[0.4]
Matrix Compiler2: 1.32 KB object code size  0.5/0.7/[0.3]

