Circuit: * D:\LT_projects\lab3a.asc


Date: Fri Oct 27 20:07:03 2023
Total elapsed time: 0.129 seconds.

tnom = 27
temp = 27
method = trap
totiter = 2078
traniter = 0
tranpoints = 0
accept = 0
rejected = 0
matrix size = 7
fillins = 0
solver = Normal
Avg thread counts: 1.8/0.0/2.7/1.8
Matrix Compiler1: 286 bytes object code size  0.3/0.3/[0.2]
Matrix Compiler2: 537 bytes object code size  0.3/0.5/[0.1]

