Circuit: * D:\LT_projects\lab3b.asc

Direct Newton iteration for .op point succeeded.

Date: Fri Oct 27 20:08:50 2023
Total elapsed time: 0.147 seconds.

tnom = 27
temp = 27
method = modified trap
totiter = 2201
traniter = 2190
tranpoints = 1094
accept = 1081
rejected = 13
matrix size = 13
fillins = 0
solver = Normal
Avg thread counts: 1.8/2.5/2.6/1.8
Matrix Compiler1: 978 bytes object code size  0.7/0.3/[0.3]
Matrix Compiler2: 1.32 KB object code size  0.4/0.4/[0.3]

