Circuit: * D:\LT_projects\noms_sc.asc

.OP point found by inspection.
.step vgs=0
.step vgs=0.25
.step vgs=0.5
.step vgs=0.75
.step vgs=1

Date: Tue Oct 10 12:15:03 2023
Total elapsed time: 0.186 seconds.

tnom = 27
temp = 27
method = trap
totiter = 1022
traniter = 0
tranpoints = 0
accept = 0
rejected = 0
matrix size = 8
fillins = 0
solver = Normal
Avg thread counts: 2.7/0.0/4.1/2.7
Matrix Compiler1: 354 bytes object code size  0.4/0.2/[0.2]
Matrix Compiler2: 656 bytes object code size  0.3/0.4/[0.1]

